src/tests/data/grids/ucte/tapPositionsRange.uct
##C 2007.05.01
Generated by powsybl, 2019.09.23 17:47
Case date: 2019.09.24 19:30
##N
##ZME
0AAAAA2  NAME12121212 0 0        0.00000 0.00000 0.00000 0.00000
0BBBBB5  NAME12121212 0 2 115.00 0.00000 0.00000 -33.200 10.0000 0.00000 -300.00 10.0000 -40.000                               F
##ZHR
HCCCCC1  namename11   0 0        123.000 18.4000 0.00000 0.00000
HDDDDD2  namename11   0 0        0.00000 0.00000 0.00000 0.00000
##ZPL
ZABCD221              0 0        0.00000 0.00000 0.00000 0.00000
ZEFGH221              0 0        0.00000 0.00000 0.00000 0.00000
##ZXX
##L
##T
0BBBBB5  0AAAAA2  1 0 110.0 220.0 125.0 0.2500 10.686 0.000000 0.0000    656
HDDDDD2  HCCCCC1  1 0 231.0 400.0 400.0 0.1880 15.100 -9.76000 0.0000   1000
ZABCD221 ZEFGH221 1 0 220.0 220.0 330.0 0.0484 0.4840 0.000000 0.0000    866
##R
0BBBBB5  0AAAAA2  1 2.000  5  -7
HDDDDD2  HCCCCC1  1                    1.000 60.00 2    9       ASYM
ZABCD221 ZEFGH221 1                    1.573 90.00  8  -8       SYMM
